Version 4
SHEET 1 880 680
WIRE 608 80 368 80
WIRE 608 144 608 80
WIRE 608 256 608 224
WIRE 112 272 -208 272
WIRE 368 272 368 80
WIRE 368 272 304 272
WIRE -208 304 -208 272
WIRE 112 368 32 368
WIRE 368 368 304 368
WIRE 32 416 32 368
WIRE 368 416 368 368
WIRE -208 528 -208 384
WIRE 32 560 32 496
WIRE 368 560 368 496
FLAG 608 256 0
FLAG 368 560 0
FLAG 32 560 0
FLAG -208 528 0
FLAG 368 368 Out
SYMBOL Optos/PC817A 208 320 R0
SYMATTR InstName U1
SYMBOL res 16 400 R0
SYMATTR InstName R1
SYMATTR Value 10K
SYMBOL res 352 400 R0
SYMATTR InstName R3
SYMATTR Value 10K
SYMBOL voltage -208 288 R0
SYMATTR InstName V1
SYMATTR Value PULSE(0 8 0.001 0.0001 0.0001 0.001 0.002 100)
SYMBOL voltage 608 128 R0
SYMATTR InstName V2
SYMATTR Value 3.3
TEXT 648 352 Left 2 !.tran 10m startup
